
OS:Version,
  {5d8115e6-1f17-4b0c-810b-23715f181e94}, !- Handle
  3.5.1,                                  !- Version Identifier
  alpha;                                  !- Prerelease Identifier

OS:Building,
  {0f721105-16f7-4fc1-91d9-97a14d1eedb9}, !- Handle
  Building 1,                             !- Name
  ,                                       !- Building Sector Type
  0,                                      !- North Axis {deg}
  ,                                       !- Nominal Floor to Floor Height {m}
  ,                                       !- Space Type Name
  {d0ec42cd-1467-44f3-8eaa-d083cfdfb52f}, !- Default Construction Set Name
  ,                                       !- Default Schedule Set Name
  ,                                       !- Standards Number of Stories
  ,                                       !- Standards Number of Above Ground Stories
  ,                                       !- Standards Template
  MediumOffice;                           !- Standards Building Type

OS:Facility,
  {e83d3c33-0ed9-44fc-8552-3542b31cb6ba}; !- Handle

OS:Site,
  {fc78193e-f8eb-4c52-887d-456a74ef3389}, !- Handle
  Site 1,                                 !- Name
  ,                                       !- Latitude {deg}
  ,                                       !- Longitude {deg}
  ,                                       !- Time Zone {hr}
  ,                                       !- Elevation {m}
  City;                                   !- Terrain

OS:SimulationControl,
  {cb459626-18c9-47fb-b774-5e4466ffe154}, !- Handle
  Yes,                                    !- Do Zone Sizing Calculation
  Yes,                                    !- Do System Sizing Calculation
  Yes,                                    !- Do Plant Sizing Calculation
  No,                                     !- Run Simulation for Sizing Periods
  Yes,                                    !- Run Simulation for Weather File Run Periods
  ,                                       !- Loads Convergence Tolerance Value {W}
  ,                                       !- Temperature Convergence Tolerance Value {deltaC}
  FullExteriorWithReflections;            !- Solar Distribution

OS:Sizing:Parameters,
  {55968fed-556c-4a0a-8d7d-b221e499aa35}, !- Handle
  1.25,                                   !- Heating Sizing Factor
  1.15;                                   !- Cooling Sizing Factor

OS:Timestep,
  {91ec0eb7-02f5-400c-99b8-675f98c4ccd4}, !- Handle
  6;                                      !- Number of Timesteps per Hour

OS:ShadowCalculation,
  {747592de-7f9b-4c45-bd04-a5ecdb3d9def}, !- Handle
  PolygonClipping,                        !- Shading Calculation Method
  Periodic,                               !- Shading Calculation Update Frequency Method
  30,                                     !- Shading Calculation Update Frequency
  15000,                                  !- Maximum Figures in Shadow Overlap Calculations
  ,                                       !- Polygon Clipping Algorithm
  512,                                    !- Pixel Counting Resolution
  ,                                       !- Sky Diffuse Modeling Algorithm
  No,                                     !- Output External Shading Calculation Results
  No,                                     !- Disable Self-Shading Within Shading Zone Groups
  No;                                     !- Disable Self-Shading From Shading Zone Groups to Other Zones

OS:HeatBalanceAlgorithm,
  {4f7c2111-a560-4fd6-9d97-1a963323939d}, !- Handle
  ConductionTransferFunction,             !- Algorithm
  200;                                    !- Surface Temperature Upper Limit {C}

OS:RunPeriod,
  {4c743634-b397-43d5-80c3-09a5ec6b2551}, !- Handle
  Run Period 1,                           !- Name
  1,                                      !- Begin Month
  1,                                      !- Begin Day of Month
  12,                                     !- End Month
  31,                                     !- End Day of Month
  ,                                       !- Use Weather File Holidays and Special Days
  ,                                       !- Use Weather File Daylight Saving Period
  ,                                       !- Apply Weekend Holiday Rule
  ,                                       !- Use Weather File Rain Indicators
  ,                                       !- Use Weather File Snow Indicators
  ;                                       !- Number of Times Runperiod to be Repeated

OS:LifeCycleCost:Parameters,
  {f315b58d-77c1-4a84-a645-4eb3164acc3b}, !- Handle
  ,                                       !- Analysis Type
  ,                                       !- Discounting Convention
  ,                                       !- Inflation Approach
  ,                                       !- Real Discount Rate
  ,                                       !- Nominal Discount Rate
  ,                                       !- Inflation
  ,                                       !- Base Date Month
  ,                                       !- Base Date Year
  ,                                       !- Service Date Month
  ,                                       !- Service Date Year
  ;                                       !- Length of Study Period in Years

OS:WeatherFile,
  {93ca44d6-05c1-42e6-9bbe-f9a4d122db0a}, !- Handle
  Haifa.AP,                               !- City
  Z,                                      !- State Province Region
  ISR,                                    !- Country
  SRC-TMYx,                               !- Data Source
  401550,                                 !- WMO Number
  32.8034,                                !- Latitude {deg}
  35.0548,                                !- Longitude {deg}
  2,                                      !- Time Zone {hr}
  8.5,                                    !- Elevation {m}
  C:/Users/alejandro.s/AppData/Local/Building_urban_analysis/Libraries/EPW/IS_5280_A_Haifa.epw, !- Url
  7DC5D6A5,                               !- Checksum
  ,                                       !- Start Date Actual Year
  Sunday;                                 !- Start Day of Week

OS:SizingPeriod:DesignDay,
  {93636ad7-4cf8-4aae-bab4-d2e1724997d3}, !- Handle
  Haifa.AP Heating Design Day 99.6% Condns DB, !- Name
  8,                                      !- Maximum Dry-Bulb Temperature {C}
  0,                                      !- Daily Dry-Bulb Temperature Range {deltaC}
  101225,                                 !- Barometric Pressure {Pa}
  4.7,                                    !- Wind Speed {m/s}
  74,                                     !- Wind Direction {deg}
  0,                                      !- Sky Clearness
  ,                                       !- Rain Indicator
  ,                                       !- Snow Indicator
  21,                                     !- Day of Month
  1,                                      !- Month
  WinterDesignDay,                        !- Day Type
  ,                                       !- Daylight Saving Time Indicator
  Wetbulb,                                !- Humidity Condition Type
  ,                                       !- Humidity Condition Day Schedule Name
  8,                                      !- Wetbulb or DewPoint at Maximum Dry-Bulb {C}
  ,                                       !- Humidity Ratio at Maximum Dry-Bulb {kgWater/kgDryAir}
  ,                                       !- Enthalpy at Maximum Dry-Bulb {J/kg}
  ,                                       !- Dry-Bulb Temperature Range Modifier Type
  ,                                       !- Dry-Bulb Temperature Range Modifier Day Schedule Name
  ASHRAEClearSky;                         !- Solar Model Indicator

OS:SizingPeriod:DesignDay,
  {82f4981a-d85b-4011-9d63-b03cca45eecb}, !- Handle
  Haifa.AP Cooling Design Day 0.4% Condns DB=>MWB, !- Name
  32,                                     !- Maximum Dry-Bulb Temperature {C}
  7.1,                                    !- Daily Dry-Bulb Temperature Range {deltaC}
  101225,                                 !- Barometric Pressure {Pa}
  4.7,                                    !- Wind Speed {m/s}
  245,                                    !- Wind Direction {deg}
  1,                                      !- Sky Clearness
  ,                                       !- Rain Indicator
  ,                                       !- Snow Indicator
  21,                                     !- Day of Month
  8,                                      !- Month
  SummerDesignDay,                        !- Day Type
  ,                                       !- Daylight Saving Time Indicator
  Wetbulb,                                !- Humidity Condition Type
  ,                                       !- Humidity Condition Day Schedule Name
  21.3,                                   !- Wetbulb or DewPoint at Maximum Dry-Bulb {C}
  ,                                       !- Humidity Ratio at Maximum Dry-Bulb {kgWater/kgDryAir}
  ,                                       !- Enthalpy at Maximum Dry-Bulb {J/kg}
  ,                                       !- Dry-Bulb Temperature Range Modifier Type
  ,                                       !- Dry-Bulb Temperature Range Modifier Day Schedule Name
  ASHRAEClearSky;                         !- Solar Model Indicator

OS:Site:WaterMainsTemperature,
  {c56f0b2e-ad0b-490b-a693-8c603e524466}, !- Handle
  CorrelationFromWeatherFile;             !- Calculation Method

OS:ClimateZones,
  {bc86ef01-31fd-433d-a1bc-a9f193d88dee}, !- Handle
  ASHRAE,                                 !- Climate Zone Institution Name 1
  ANSI/ASHRAE Standard 169,               !- Climate Zone Document Name 1
  2006,                                   !- Climate Zone Document Year 1
  3A;                                     !- Climate Zone Value 1

OS:Output:Variable,
  {f6ee19a9-fec0-4eb6-acc1-34de9beddd28}, !- Handle
  Output Variable 1,                      !- Name
  ,                                       !- Key Value
  Surface Outside Face Temperature,       !- Variable Name
  Timestep;                               !- Reporting Frequency

OS:Output:Variable,
  {d89ed691-72f5-47f0-847f-9edcd29489c1}, !- Handle
  Output Variable 2,                      !- Name
  ,                                       !- Key Value
  Zone Electric Equipment Electricity Energy, !- Variable Name
  Timestep;                               !- Reporting Frequency

OS:Output:Variable,
  {06f05b70-8325-4b8e-bd27-28fb1400b98d}, !- Handle
  Output Variable 3,                      !- Name
  ,                                       !- Key Value
  Zone Ideal Loads Supply Air Total Cooling Energy, !- Variable Name
  Timestep;                               !- Reporting Frequency

OS:Output:Variable,
  {9051793f-f9a7-4b83-a2a8-1102ccb2ffcc}, !- Handle
  Output Variable 4,                      !- Name
  ,                                       !- Key Value
  Zone Ideal Loads Supply Air Total Heating Energy, !- Variable Name
  Timestep;                               !- Reporting Frequency

OS:Output:Variable,
  {d9080604-a102-4e23-a28f-ca00c2013130}, !- Handle
  Output Variable 5,                      !- Name
  ,                                       !- Key Value
  Zone Lights Electricity Energy,         !- Variable Name
  Timestep;                               !- Reporting Frequency

OS:Output:Table:SummaryReports,
  {d6dde1e4-68b6-4497-ad99-b81c89281021}, !- Handle
  AllSummary;                             !- Report Name 1

OS:YearDescription,
  {1b76f381-7593-4c10-812e-45df42e2a175}, !- Handle
  ,                                       !- Calendar Year
  Sunday,                                 !- Day of Week for Start Day
  No;                                     !- Is Leap Year

OS:ScheduleTypeLimits,
  {0d65ba53-fd53-45ce-898e-f87c35385d7a}, !- Handle
  Temperature,                            !- Name
  -273.15,                                !- Lower Limit Value
  ,                                       !- Upper Limit Value
  Continuous,                             !- Numeric Type
  Temperature;                            !- Unit Type

OS:ScheduleTypeLimits,
  {b969807f-88eb-47a1-8d7d-a600edea31dd}, !- Handle
  Activity Level,                         !- Name
  0,                                      !- Lower Limit Value
  ,                                       !- Upper Limit Value
  Continuous,                             !- Numeric Type
  ActivityLevel;                          !- Unit Type

OS:ScheduleTypeLimits,
  {dbb22f47-5730-41db-b194-3cd122ab148e}, !- Handle
  Fractional,                             !- Name
  0,                                      !- Lower Limit Value
  1,                                      !- Upper Limit Value
  Continuous,                             !- Numeric Type
  Dimensionless;                          !- Unit Type

OS:Schedule:Ruleset,
  {b7440add-d10f-467f-af57-847feb92d1a2}, !- Handle
  Generic Office Infiltration,            !- Name
  {dbb22f47-5730-41db-b194-3cd122ab148e}, !- Schedule Type Limits Name
  {84351700-e4fa-4190-b3dd-0314ab84afaa}, !- Default Day Schedule Name
  {9f3cfa62-0561-4e96-9a36-751c33f21893}, !- Summer Design Day Schedule Name
  {98a7a205-be42-418a-8a6c-2b83d277cd1d}, !- Winter Design Day Schedule Name
  {d5026548-5ab5-4e76-8bc5-a182aa4d9d75}; !- Holiday Schedule Name

OS:Schedule:Day,
  {84351700-e4fa-4190-b3dd-0314ab84afaa}, !- Handle
  OfficeMedium INFIL_SCH_PNNL_Default,    !- Name
  {dbb22f47-5730-41db-b194-3cd122ab148e}, !- Schedule Type Limits Name
  ,                                       !- Interpolate to Timestep
  24,                                     !- Hour 1
  0,                                      !- Minute 1
  1;                                      !- Value Until Time 1

OS:Schedule:Day,
  {f22a2c16-64d6-467b-a127-4ca68003760b}, !- Handle
  OfficeMedium INFIL_SCH_PNNL_Wkdy_SmrDsn, !- Name
  {dbb22f47-5730-41db-b194-3cd122ab148e}, !- Schedule Type Limits Name
  ,                                       !- Interpolate to Timestep
  6,                                      !- Hour 1
  0,                                      !- Minute 1
  1,                                      !- Value Until Time 1
  22,                                     !- Hour 2
  0,                                      !- Minute 2
  0.25,                                   !- Value Until Time 2
  24,                                     !- Hour 3
  0,                                      !- Minute 3
  1;                                      !- Value Until Time 3

OS:Schedule:Day,
  {6943f67c-e991-4a7b-9d3d-b3b47576d8ed}, !- Handle
  OfficeMedium INFIL_SCH_PNNL_Sat_WntrDsn, !- Name
  {dbb22f47-5730-41db-b194-3cd122ab148e}, !- Schedule Type Limits Name
  ,                                       !- Interpolate to Timestep
  6,                                      !- Hour 1
  0,                                      !- Minute 1
  1,                                      !- Value Until Time 1
  18,                                     !- Hour 2
  0,                                      !- Minute 2
  0.25,                                   !- Value Until Time 2
  24,                                     !- Hour 3
  0,                                      !- Minute 3
  1;                                      !- Value Until Time 3

OS:Schedule:Day,
  {e0557c72-3ff2-4d43-8b04-b445ac2bd1b0}, !- Handle
  OfficeMedium INFIL_SCH_PNNL_Wkdy,       !- Name
  {dbb22f47-5730-41db-b194-3cd122ab148e}, !- Schedule Type Limits Name
  ,                                       !- Interpolate to Timestep
  6,                                      !- Hour 1
  0,                                      !- Minute 1
  1,                                      !- Value Until Time 1
  22,                                     !- Hour 2
  0,                                      !- Minute 2
  0.25,                                   !- Value Until Time 2
  24,                                     !- Hour 3
  0,                                      !- Minute 3
  1;                                      !- Value Until Time 3

OS:Schedule:Day,
  {4589d3e6-8c92-4650-bf2f-f1fbd7105083}, !- Handle
  OfficeMedium INFIL_SCH_PNNL_Sat,        !- Name
  {dbb22f47-5730-41db-b194-3cd122ab148e}, !- Schedule Type Limits Name
  ,                                       !- Interpolate to Timestep
  6,                                      !- Hour 1
  0,                                      !- Minute 1
  1,                                      !- Value Until Time 1
  18,                                     !- Hour 2
  0,                                      !- Minute 2
  0.25,                                   !- Value Until Time 2
  24,                                     !- Hour 3
  0,                                      !- Minute 3
  1;                                      !- Value Until Time 3

OS:Schedule:Day,
  {d5026548-5ab5-4e76-8bc5-a182aa4d9d75}, !- Handle
  OfficeMedium INFIL_SCH_PNNL_Default 1,  !- Name
  {dbb22f47-5730-41db-b194-3cd122ab148e}, !- Schedule Type Limits Name
  ,                                       !- Interpolate to Timestep
  24,                                     !- Hour 1
  0,                                      !- Minute 1
  1;                                      !- Value Until Time 1

OS:Schedule:Day,
  {9f3cfa62-0561-4e96-9a36-751c33f21893}, !- Handle
  OfficeMedium INFIL_SCH_PNNL_Wkdy_SmrDsn 1, !- Name
  {dbb22f47-5730-41db-b194-3cd122ab148e}, !- Schedule Type Limits Name
  ,                                       !- Interpolate to Timestep
  6,                                      !- Hour 1
  0,                                      !- Minute 1
  1,                                      !- Value Until Time 1
  22,                                     !- Hour 2
  0,                                      !- Minute 2
  0.25,                                   !- Value Until Time 2
  24,                                     !- Hour 3
  0,                                      !- Minute 3
  1;                                      !- Value Until Time 3

OS:Schedule:Day,
  {98a7a205-be42-418a-8a6c-2b83d277cd1d}, !- Handle
  OfficeMedium INFIL_SCH_PNNL_Sat_WntrDsn 1, !- Name
  {dbb22f47-5730-41db-b194-3cd122ab148e}, !- Schedule Type Limits Name
  ,                                       !- Interpolate to Timestep
  6,                                      !- Hour 1
  0,                                      !- Minute 1
  1,                                      !- Value Until Time 1
  18,                                     !- Hour 2
  0,                                      !- Minute 2
  0.25,                                   !- Value Until Time 2
  24,                                     !- Hour 3
  0,                                      !- Minute 3
  1;                                      !- Value Until Time 3

OS:Schedule:Rule,
  {8bc73bd1-0205-4161-bce9-57e1e9c595cf}, !- Handle
  Schedule Rule 1,                        !- Name
  {b7440add-d10f-467f-af57-847feb92d1a2}, !- Schedule Ruleset Name
  0,                                      !- Rule Order
  {f706c957-5882-4628-b8a9-15e357778ffa}, !- Day Schedule Name
  No,                                     !- Apply Sunday
  Yes,                                    !- Apply Monday
  Yes,                                    !- Apply Tuesday
  Yes,                                    !- Apply Wednesday
  Yes,                                    !- Apply Thursday
  Yes,                                    !- Apply Friday
  No,                                     !- Apply Saturday
  DateRange,                              !- Date Specification Type
  1,                                      !- Start Month
  1,                                      !- Start Day
  12,                                     !- End Month
  31;                                     !- End Day

OS:Schedule:Day,
  {f706c957-5882-4628-b8a9-15e357778ffa}, !- Handle
  Schedule Day 1,                         !- Name
  {dbb22f47-5730-41db-b194-3cd122ab148e}, !- Schedule Type Limits Name
  ,                                       !- Interpolate to Timestep
  6,                                      !- Hour 1
  0,                                      !- Minute 1
  1,                                      !- Value Until Time 1
  22,                                     !- Hour 2
  0,                                      !- Minute 2
  0.25,                                   !- Value Until Time 2
  24,                                     !- Hour 3
  0,                                      !- Minute 3
  1;                                      !- Value Until Time 3

OS:Schedule:Rule,
  {21a9e667-6f30-4397-81ab-0b5a7b95d9d2}, !- Handle
  Schedule Rule 2,                        !- Name
  {b7440add-d10f-467f-af57-847feb92d1a2}, !- Schedule Ruleset Name
  1,                                      !- Rule Order
  {e27a971e-fc8f-4048-a439-2b9dfa015cc8}, !- Day Schedule Name
  No,                                     !- Apply Sunday
  No,                                     !- Apply Monday
  No,                                     !- Apply Tuesday
  No,                                     !- Apply Wednesday
  No,                                     !- Apply Thursday
  No,                                     !- Apply Friday
  Yes,                                    !- Apply Saturday
  DateRange,                              !- Date Specification Type
  1,                                      !- Start Month
  1,                                      !- Start Day
  12,                                     !- End Month
  31;                                     !- End Day

OS:Schedule:Day,
  {e27a971e-fc8f-4048-a439-2b9dfa015cc8}, !- Handle
  Schedule Day 2,                         !- Name
  {dbb22f47-5730-41db-b194-3cd122ab148e}, !- Schedule Type Limits Name
  ,                                       !- Interpolate to Timestep
  6,                                      !- Hour 1
  0,                                      !- Minute 1
  1,                                      !- Value Until Time 1
  18,                                     !- Hour 2
  0,                                      !- Minute 2
  0.25,                                   !- Value Until Time 2
  24,                                     !- Hour 3
  0,                                      !- Minute 3
  1;                                      !- Value Until Time 3

OS:Schedule:Ruleset,
  {343319be-6e58-43b1-a0bf-22989e8f0068}, !- Handle
  Generic Office Heating,                 !- Name
  {0d65ba53-fd53-45ce-898e-f87c35385d7a}, !- Schedule Type Limits Name
  {32b8f49c-dd81-4e58-b521-c495b99ed0a2}, !- Default Day Schedule Name
  {721fad3a-6552-4b19-89ea-de6beed191ac}, !- Summer Design Day Schedule Name
  {5dd4ff64-30ee-4250-a47d-fd9d425fcdd5}, !- Winter Design Day Schedule Name
  {89562fea-dce6-4901-92c2-df47cdcfa4bb}; !- Holiday Schedule Name

OS:Schedule:Day,
  {32b8f49c-dd81-4e58-b521-c495b99ed0a2}, !- Handle
  OfficeMedium HTGSETP_SCH_YES_OPTIMUM_Default, !- Name
  {0d65ba53-fd53-45ce-898e-f87c35385d7a}, !- Schedule Type Limits Name
  ,                                       !- Interpolate to Timestep
  24,                                     !- Hour 1
  0,                                      !- Minute 1
  15.6;                                   !- Value Until Time 1

OS:Schedule:Day,
  {32466963-53b4-485d-b919-b05df5523341}, !- Handle
  OfficeMedium HTGSETP_SCH_YES_OPTIMUM_Default_SmrDsn, !- Name
  {0d65ba53-fd53-45ce-898e-f87c35385d7a}, !- Schedule Type Limits Name
  ,                                       !- Interpolate to Timestep
  24,                                     !- Hour 1
  0,                                      !- Minute 1
  15.6;                                   !- Value Until Time 1

OS:Schedule:Day,
  {b541c6b1-3ced-40e7-9f11-4cf9188e62d2}, !- Handle
  OfficeMedium HTGSETP_SCH_YES_OPTIMUM_WntrDsn, !- Name
  {0d65ba53-fd53-45ce-898e-f87c35385d7a}, !- Schedule Type Limits Name
  ,                                       !- Interpolate to Timestep
  5,                                      !- Hour 1
  0,                                      !- Minute 1
  15.6,                                   !- Value Until Time 1
  6,                                      !- Hour 2
  0,                                      !- Minute 2
  17.6,                                   !- Value Until Time 2
  7,                                      !- Hour 3
  0,                                      !- Minute 3
  19.6,                                   !- Value Until Time 3
  22,                                     !- Hour 4
  0,                                      !- Minute 4
  21,                                     !- Value Until Time 4
  24,                                     !- Hour 5
  0,                                      !- Minute 5
  15.6;                                   !- Value Until Time 5

OS:Schedule:Day,
  {9aa99cd3-284b-4d32-905d-bcd432adaf38}, !- Handle
  OfficeMedium HTGSETP_SCH_YES_OPTIMUM_Wkdy, !- Name
  {0d65ba53-fd53-45ce-898e-f87c35385d7a}, !- Schedule Type Limits Name
  ,                                       !- Interpolate to Timestep
  5,                                      !- Hour 1
  0,                                      !- Minute 1
  15.6,                                   !- Value Until Time 1
  6,                                      !- Hour 2
  0,                                      !- Minute 2
  17.8,                                   !- Value Until Time 2
  7,                                      !- Hour 3
  0,                                      !- Minute 3
  20,                                     !- Value Until Time 3
  22,                                     !- Hour 4
  0,                                      !- Minute 4
  21,                                     !- Value Until Time 4
  24,                                     !- Hour 5
  0,                                      !- Minute 5
  15.6;                                   !- Value Until Time 5

OS:Schedule:Day,
  {16e72f45-ea6b-41a9-a6fe-2d4ed85f205a}, !- Handle
  OfficeMedium HTGSETP_SCH_YES_OPTIMUM_Sat, !- Name
  {0d65ba53-fd53-45ce-898e-f87c35385d7a}, !- Schedule Type Limits Name
  ,                                       !- Interpolate to Timestep
  5,                                      !- Hour 1
  0,                                      !- Minute 1
  15.6,                                   !- Value Until Time 1
  6,                                      !- Hour 2
  0,                                      !- Minute 2
  17.8,                                   !- Value Until Time 2
  7,                                      !- Hour 3
  0,                                      !- Minute 3
  20,                                     !- Value Until Time 3
  17,                                     !- Hour 4
  0,                                      !- Minute 4
  21,                                     !- Value Until Time 4
  24,                                     !- Hour 5
  0,                                      !- Minute 5
  15.6;                                   !- Value Until Time 5

OS:Schedule:Day,
  {89562fea-dce6-4901-92c2-df47cdcfa4bb}, !- Handle
  OfficeMedium HTGSETP_SCH_YES_OPTIMUM_Default 1, !- Name
  {0d65ba53-fd53-45ce-898e-f87c35385d7a}, !- Schedule Type Limits Name
  ,                                       !- Interpolate to Timestep
  24,                                     !- Hour 1
  0,                                      !- Minute 1
  15.6;                                   !- Value Until Time 1

OS:Schedule:Day,
  {721fad3a-6552-4b19-89ea-de6beed191ac}, !- Handle
  OfficeMedium HTGSETP_SCH_YES_OPTIMUM_Default_SmrDsn 1, !- Name
  {0d65ba53-fd53-45ce-898e-f87c35385d7a}, !- Schedule Type Limits Name
  ,                                       !- Interpolate to Timestep
  24,                                     !- Hour 1
  0,                                      !- Minute 1
  15.6;                                   !- Value Until Time 1

OS:Schedule:Day,
  {5dd4ff64-30ee-4250-a47d-fd9d425fcdd5}, !- Handle
  OfficeMedium HTGSETP_SCH_YES_OPTIMUM_WntrDsn 1, !- Name
  {0d65ba53-fd53-45ce-898e-f87c35385d7a}, !- Schedule Type Limits Name
  ,                                       !- Interpolate to Timestep
  5,                                      !- Hour 1
  0,                                      !- Minute 1
  15.6,                                   !- Value Until Time 1
  6,                                      !- Hour 2
  0,                                      !- Minute 2
  17.6,                                   !- Value Until Time 2
  7,                                      !- Hour 3
  0,                                      !- Minute 3
  19.6,                                   !- Value Until Time 3
  22,                                     !- Hour 4
  0,                                      !- Minute 4
  21,                                     !- Value Until Time 4
  24,                                     !- Hour 5
  0,                                      !- Minute 5
  15.6;                                   !- Value Until Time 5

OS:Schedule:Rule,
  {581199b7-90cc-4644-be10-ccbd5b89109e}, !- Handle
  Schedule Rule 3,                        !- Name
  {343319be-6e58-43b1-a0bf-22989e8f0068}, !- Schedule Ruleset Name
  0,                                      !- Rule Order
  {c55faa1a-37e8-41bc-8898-df3e191cafe6}, !- Day Schedule Name
  No,                                     !- Apply Sunday
  Yes,                                    !- Apply Monday
  Yes,                                    !- Apply Tuesday
  Yes,                                    !- Apply Wednesday
  Yes,                                    !- Apply Thursday
  Yes,                                    !- Apply Friday
  No,                                     !- Apply Saturday
  DateRange,                              !- Date Specification Type
  1,                                      !- Start Month